-- Problem 3A
--
RUNSPEC

RADIAL 
INCLUDE
 '../inc/runspec_STEAM.inc' /

METRIC

DIMENS
 11 1 11 /



------------------------------------------
GRID

INIT


DR
 0.16 0.48 0.72 2.22 5.12 14.48 31.52 86.48 205.52 526.48 1305.52
 0.16 0.48 0.72 2.22 5.12 14.48 31.52 86.48 205.52 526.48 1305.52
 0.16 0.48 0.72 2.22 5.12 14.48 31.52 86.48 205.52 526.48 1305.52
 0.16 0.48 0.72 2.22 5.12 14.48 31.52 86.48 205.52 526.48 1305.52
 0.16 0.48 0.72 2.22 5.12 14.48 31.52 86.48 205.52 526.48 1305.52
 0.16 0.48 0.72 2.22 5.12 14.48 31.52 86.48 205.52 526.48 1305.52
 0.16 0.48 0.72 2.22 5.12 14.48 31.52 86.48 205.52 526.48 1305.52
 0.16 0.48 0.72 2.22 5.12 14.48 31.52 86.48 205.52 526.48 1305.52
 0.16 0.48 0.72 2.22 5.12 14.48 31.52 86.48 205.52 526.48 1305.52
 0.16 0.48 0.72 2.22 5.12 14.48 31.52 86.48 205.52 526.48 1305.52
 0.16 0.48 0.72 2.22 5.12 14.48 31.52 86.48 205.52 526.48 1305.52
/

--0.16	0.48	0.72	2.28	3.7	9.8	23	59	146	366	916
--0.16	0.48	0.72	2.28	3.7	9.8	23	59	146	366	916
--0.16	0.48	0.72	2.28	3.7	9.8	23	59	146	366	916
--0.16	0.48	0.72	2.28	3.7	9.8	23	59	146	366	916
--0.16	0.48	0.72	2.28	3.7	9.8	23	59	146	366	916
--0.16	0.48	0.72	2.28	3.7	9.8	23	59	146	366	916
--0.16	0.48	0.72	2.28	3.7	9.8	23	59	146	366	916
--0.16	0.48	0.72	2.28	3.7	9.8	23	59	146	366	916
--0.16	0.48	0.72	2.28	3.7	9.8	23	59	146	366	916
--0.16	0.48	0.72	2.28	3.7	9.8	23	59	146	366	916
--0.16	0.48	0.72	2.28	3.7	9.8	23	59	146	366	916
-- /
 
-- Reduced inner radius as small as possible
INRAD
1e-5 /

DTHETA
 121*360 /

DZ
 121*0.1 /

TOPS
 11*0 /

PORO
 1.0	0.1	0.1	0.1	0.1	0.1	0.1	0.1	0.1	0.1	0.1
 1.0	0.1	0.1	0.1	0.1	0.1	0.1	0.1	0.1	0.1	0.1
 1.0	0.1	0.1	0.1	0.1	0.1	0.1	0.1	0.1	0.1	0.1
 1.0	0.1	0.1	0.1	0.1	0.1	0.1	0.1	0.1	0.1	0.1
 1.0	0.1	0.1	0.1	0.1	0.1	0.1	0.1	0.1	0.1	0.1
 1.0	0.1	0.1	0.1	0.1	0.1	0.1	0.1	0.1	0.1	0.1
 1.0	0.1	0.1	0.1	0.1	0.1	0.1	0.1	0.1	0.1	0.1
 1.0	0.1	0.1	0.1	0.1	0.1	0.1	0.1	0.1	0.1	0.1
 1.0	0.1	0.1	0.1	0.1	0.1	0.1	0.1	0.1	0.1	0.1
 1.0	0.1	0.1	0.1	0.1	0.1	0.1	0.1	0.1	0.1	0.1
 1.0	0.1	0.1	0.1	0.1	0.1	0.1	0.1	0.1	0.1	0.1
/

PERMX
0	   0	0	0	0	0	0	0	0	0	0
0	   0	0	0	0	0	0	0	0	0	0
0	   0	0	0	0	0	0	0	0	0	0
0	   0	0	0	0	0	0	0	0	0	0
0	   0	0	0	0	0	0	0	0	0	0
0	   0	0	0	0	0	0	0	0	0	0
0	   0	0	0	0	0	0	0	0	0	0
0	   0	0	0	0	0	0	0	0	0	0
0	   0	0	0	0	0	0	0	0	0	0
0	   0	0	0	0	0	0	0	0	0	0
300	300	300	300	300	300	300	300	300	300	300 /


PERMY
0	   0	0	0	0	0	0	0	0	0	0
0	   0	0	0	0	0	0	0	0	0	0
0	   0	0	0	0	0	0	0	0	0	0
0	   0	0	0	0	0	0	0	0	0	0
0	   0	0	0	0	0	0	0	0	0	0
0	   0	0	0	0	0	0	0	0	0	0
0	   0	0	0	0	0	0	0	0	0	0
0	   0	0	0	0	0	0	0	0	0	0
0	   0	0	0	0	0	0	0	0	0	0
0	   0	0	0	0	0	0	0	0	0	0
300	300	300	300	300	300	300	300	300	300	300 /

 
PERMZ
30     0.03	0.03	0.03	0.03	0.03	0.03	0.03	0.03	0.03	0.03
30     0.03	0.03	0.03	0.03	0.03	0.03	0.03	0.03	0.03	0.03
30     0.03	0.03	0.03	0.03	0.03	0.03	0.03	0.03	0.03	0.03
30     0.03	0.03	0.03	0.03	0.03	0.03	0.03	0.03	0.03	0.03
30     0.03	0.03	0.03	0.03	0.03	0.03	0.03	0.03	0.03	0.03
30     0.03	0.03	0.03	0.03	0.03	0.03	0.03	0.03	0.03	0.03
30     0.03	0.03	0.03	0.03	0.03	0.03	0.03	0.03	0.03	0.03
30     0.03	0.03	0.03	0.03	0.03	0.03	0.03	0.03	0.03	0.03
30     0.03	0.03	0.03	0.03	0.03	0.03	0.03	0.03	0.03	0.03
0     0.03	0.03	0.03	0.03	0.03	0.03	0.03	0.03	0.03	0.03
300   	0.03	0.03	0.03	0.03	0.03	0.03	0.03	0.03	0.03  0.03 /




-- NEEDED for ECLIPSE THERMAL
HEATCR
 121*2570 /
THCONR
 121*0 /
------------------------------------------
PROPS

ROCK
 15 0 /

-- note piecewise linear interpolation so possibly want a more detailed table
SWOF
 0. 0. 0. 0.
.3 0.0 0. 0.
.5 0.0 0. 0.
.7 0.0 0. 0.
1. 1. 0. 0.
/

SGOF
0. 0. 0. 0.
.1 1. 0. 0.
.5 1. 0. 0.
.7 1. 0. 0.
1. 1. 0. 0.
/


INCLUDE
 '../inc/props_STEAM.inc' /

-------------------------------------------
SOLUTION

PRESSURE
 1*30.5  10*30.5 
 1*30.5  10*30.5 
 1*30.5  10*30.5 
 1*30.5  10*30.5 
 1*30.5  10*30.5 
 1*30.5  10*30.5 
 1*30.5  10*30.5 
 1*30.5  10*30.5 
 1*30.5  10*30.5 
 1*30.5  10*30.5 
 1*30.5  10*30.5 /

TEMPI
 121*234.7767 /

SGAS
121*1.0

/

SWAT
121*0.0
/


------------------------------------------
SUMMARY

INCLUDE
 'summary_WELLREPORT.inc' /

BPRES
 1 1 11 
 1 1 10 
 1 1 9 
 2 1 11 
 2 1 10 
 2 1 9 
 4 1 11 
 4 1 10 
 4 1 8 
/

BWSAT
 1 1 11 
 1 1 10 
 1 1 9 
 2 1 11 
 2 1 10 
 2 1 9 
 4 1 11 
 4 1 10 
 4 1 8 
/

RUNSUM
EXCEL

----------------------------------------
SCHEDULE

INCLUDE
 '../inc/schedule_REPORT.inc' /


WELSPECS
 DOG FIELD 1 1 0 LIQ 1* 1* /
/
-- Radius 0.01 m - must match the value in the INRAD keyword of the grid.
-- Need to complete in all angular segments.
COMPDAT
 DOG  1 1 11 11 OPEN 1* 1* 0.16 1* /
/


WCONPROD
-- Constant discharge rate of 0.028 kg/s, here we assume 18.0158 for water (i.e. pure water)
-- kg-mol/day for TMRA = 0.028*60*60*24/18.01528 = 2419.2/18.01528 = 134.286
-- 0.028 kg/s = 0.028*60*60*24 = 2419.2
 DOG OPEN TMRA 5* 1 4* 134.286 /
/

-- Suggested 130 timesteps, starting at 1 second and increasing by a factor 1.05
TSTEP
1.15741E-05
1.21528E-05
1.27604E-05
1.33984E-05
1.40684E-05
1.47718E-05
1.55104E-05
1.62859E-05
1.71002E-05
1.79552E-05
1.88529E-05
1.97956E-05
2.07854E-05
2.18246E-05
2.29159E-05
2.40617E-05
2.52648E-05
2.6528E-05
2.78544E-05
2.92471E-05
3.07095E-05
3.22449E-05
3.38572E-05
3.555E-05
3.73275E-05
3.91939E-05
4.11536E-05
4.32113E-05
4.53719E-05
4.76405E-05
5.00225E-05
5.25236E-05
5.51498E-05
5.79073E-05
6.08026E-05
6.38428E-05
6.70349E-05
7.03867E-05
7.3906E-05
7.76013E-05
8.14814E-05
8.55554E-05
8.98332E-05
9.43248E-05
9.90411E-05
0.000103993
0.000109193
0.000114652
0.000120385
0.000126404
0.000132725
0.000139361
0.000146329
0.000153645
0.000161328
0.000169394
0.000177864
0.000186757
0.000196095
0.000205899
0.000216194
0.000227004
0.000238354
0.000250272
0.000262785
0.000275925
0.000289721
0.000304207
0.000319417
0.000335388
0.000352158
0.000369766
0.000388254
0.000407667
0.00042805
0.000449452
0.000471925
0.000495521
0.000520297
0.000546312
0.000573628
0.000602309
0.000632425
0.000664046
0.000697248
0.000732111
0.000768716
0.000807152
0.00084751
0.000889885
0.000934379
0.000981098
0.001030153
0.001081661
0.001135744
0.001192531
0.001252158
0.001314765
0.001380504
0.001449529
0.001522005
0.001598106
0.001678011
0.001761911
0.001850007
0.001942507
0.002039633
0.002141614
0.002248695
0.00236113
0.002479186
0.002603146
0.002733303
0.002869968
0.003013466
0.00316414
0.003322347
0.003488464
0.003662887
0.003846032
0.004038333
0.00424025
0.004452262
0.004674875
0.004908619
0.00515405
0.005411753
0.00568234
0.005966457
0.00626478
/



END
