-- Stanford Test Problem #2c
-- 1-D radial flow of water 
--
------------------------------------------------------
RUNSPEC

RADIAL

INCLUDE
 '../inc/runspec_STEAM.inc' /
 
AQUDIMS
/


DIMENS
 26 1 1 /


 
----------------------------------------------------
GRID

INIT


DR
 .4 .2 .2142 .3716 .6 1.0426 1.1716 1.6569 2.3431 3.3137 4.6863
 6.6274 9.3726 13.2548 18.7452 26.5097 37.49 53.0193 74.98 106.0387
 149.96 212.077 299.923 424.1587 599.84 848.31
/
-- Reduced inner radius as small as possible
INRAD
1e-5 /

DTHETA
 26*360 /

DZ
 26*100 /

TOPS
 26*0 /

PORO
 26*0.20 /

PERMX
 26*10 /

 
PERMY
 26*10 /


PERMZ
 26*10 /

-- Rock and fluid thermal properties
THCOIL
 26*0.0 /
-- 26*59.8 /
THCWATER
  26*0.0 /
-- 26*59.8 /
THCGAS
  26*4.36 /
-- 26*4.36 /
HEATCR
 26*2650 /
THCROCK
 26*86.4 /
-- 26*86.4 /

MULTR
 1*1000 /

AQUANCON
 1 26 26 1 1 1 1 X+ /
/

---------------------------------------------------
PROPS

INCLUDE
 '../inc/props_STEAM.inc' /

ROCK
 15 0 /

SWOF
0	0.000000	0	0
0.3	0.000000	0	0
0.35	0.000035	0	0
0.4	0.000560	0	0
0.5	0.008963	0	0
0.6	0.045377	0	0
0.7	0.143412	0	0
0.8	0.350128	0	0
0.9	0.726025	0	0
0.93	0.882488	0	0
0.95	1.000000	0	0
1	1.000000	0	0
/			


SGOF
0	0	0	0
0.05	0	0	0
0.06	7.22664E-06	0	0
0.1	0.000875319	0	0
0.2	0.021742936	0	0
0.3	0.091908547	0	0
0.4	0.228178285	0	0
0.5	0.433913378	0	0
0.6	0.699030146	0	0
0.7	1	0	0
0.8	1	0	0
1	1	0	0
/		


STCOND
 1e-5 1e-5 /
---------------------------------------------------
SOLUTION
 
PRESSURE
 26*90.0 /

TEMPI
 26*300 /

SWAT
 26*1.00 /
 
SGAS
 26*0.00 /
 
AQUCHWAT
 1 50.0 PRESSURE 90.0 5E10 9* 300 /
/ 

 
-------------------------------------------------
SUMMARY

INCLUDE
 'summary_WELLREPORT.inc' /

INCLUDE
 'summary_TEST2blocks.inc' /
 
WSTPR
/

BUFLEN
 2 1 1 /
 3 1 1 /
 4 1 1 /
/

RUNSUM
EXCEL

------------------------------------------------
SCHEDULE
 

INCLUDE
 '../inc/schedule_REPORT.inc' /

WELSPECS
 PROD FIELD 1 1 10000 GAS/
/

COMPDAT
-- 80000 md.ft = 24384 md.m
 PROD 1 1 1 1 OPEN 1 1* 1* 1* 1* /
/

UDQ
-- BUFLEN is the Block User-defined FLowing ENthalpy
-- The definition of flowing enthalpy comes from:
-- eq. 13 of 'A similarity method for geothermal well test analysis'
-- M.J. O'Sullivan, 1981. Water Resources Research, V17 (2), p390-398.
-- 
-- verified against equation 10 of:
-- 'Analysis of injection testing of geothermal reservoirs'
--    M. O'Sullivan and K. Pruess, LBL-10985.
DEFINE BUGMOB ((BGKR*BGDEN)/(BVGAS+1e-6)) /
DEFINE BUWMOB ((BWKR*BWDEN)/ (BVWAT+1e-6)) /
DEFINE BUFLEN (((BHGAS*BUGMOB)+(BHWAT*BUWMOB))/((BUGMOB+BUWMOB)*18.01528)) /
-- UNITS assume ECLIPSE METRIC
UNITS BUFLEN KJ/KG /
/

WCONPROD
-- Constant discharge rate of 14.0 kg/s
-- kg-mol/day for TMRA = 14.0*60*60*24/18.01528 = 1209600/18.01528 = 67143
 PROD OPEN TMRA 5* 1 4* 67143 /
/


TSTEP
 10*1e-5 10*1e-4 10*1e-3 10*1e-2 10*1e-1 /

TSTEP
 10*1 10*10 10*100 /

END
